*SPEF "IEEE 1481-1998"
*DESIGN "uart_top"
*DATE "Fri Sep 27 16:36:11 2024"
*VENDOR "Cadence Design Systems, Inc."
*PROGRAM "Innovus"
*VERSION "22.14-s061_1"
*DESIGN_FLOW "COUPLING C" "PIN_CAP NONE" "NAME_SCOPE LOCAL"
*DIVIDER /
*DELIMITER :
*BUS_DELIMITER []
*T_UNIT 1 NS
*C_UNIT 1 PF
*R_UNIT 1 OHM
*L_UNIT 1 HENRY

// MMMC spef file for corner 'RC_CORNER'

*NAME_MAP

*1 uart/sender/FE_OFN185_n_65
*2 FE_OFN184_t_data_3
*3 FE_OFN183_t_data_0
*4 clk_divider/CTS_2
*5 clk_divider/CTS_1
*6 clk_divider/CTS_4
*7 clk_divider/CTS_3
*8 uart/sender/FE_OFN181_n_24
*9 FE_OFN162_t_buffer_7
*10 uart/sender/FE_OFN133_t_data_0
*11 uart/sender/FE_OFN132_t_data_0
*12 FE_OFN118_t_buffer_3
*13 FE_OFN85_t_buffer_0
*14 FE_OFN84_t_data_2
*15 FE_OFN83_t_data_7
*16 FE_OFN82_t_data_4
*17 FE_OFN81_t_buffer_4
*18 FE_OFN80_t_buffer_1
*19 FE_OFN79_t_buffer_5
*20 FE_OFN78_t_data_5
*21 FE_OFN77_sampling
*22 uart/recver/FE_OFN75_n_53
*23 uart/recver/FE_OFN74_n_54
*24 uart/recver/FE_OFN73_n_54
*25 clk_divider/FE_OFN71_n_7
*26 FE_OFN65_t_data_1
*27 uart/sender/FE_OFN62_t_data_3
*28 FE_OFN58_t_data_6
*29 FE_OFN55_sending
*30 uart/sender/FE_OFN50_t_buffer_2
*31 uart/sender/FE_OFN49_t_buffer_2
*32 FE_OFN48_t_buffer_2
*33 FE_OFN41_t_buffer_6
*34 FE_OFN38_no_bits_sent_0
*35 FE_OFN36_no_bits_sent_1
*36 FE_OFN33_no_bits_sent_2
*37 FE_OFN32_no_bits_sent_3
*38 FE_OFN31_r_data_0
*39 FE_OFN30_r_data_1
*40 FE_OFN29_r_data_2
*41 FE_OFN28_r_data_3
*42 FE_OFN27_r_data_4
*43 FE_OFN26_r_data_5
*44 FE_OFN24_r_data_6
*45 FE_OFN22_r_data_7
*46 uart/recver/FE_OFN20_sampling
*47 uart/recver/FE_OFN19_sampling
*48 FE_OFN17_r_clk1x
*49 uart/recver/FE_OFN16_r_clk1x
*50 FE_OFN15_no_bits_rcvd_0
*51 FE_OFN14_no_bits_rcvd_1
*52 FE_OFN13_no_bits_rcvd_2
*53 FE_OFN12_no_bits_rcvd_3
*54 FE_OFN11_cnt16x_0
*55 FE_OFN9_cnt16x_1
*56 FE_OFN8_cnt16x_2
*57 FE_OFN6_cnt16x_3
*58 FE_OFN4_txd
*59 FE_OFN3_t_empty
*60 FE_OFN2_frame_error
*61 FE_OFN1_parity_error
*62 FE_OFN0_r_ready
*63 clk_230400
*64 baud_rate_sel[3]
*65 baud_rate_sel[2]
*66 baud_rate_sel[1]
*67 baud_rate_sel[0]
*68 clrn
*69 rdn
*70 d_out[7]
*71 d_out[6]
*72 d_out[5]
*73 d_out[4]
*74 d_out[3]
*75 d_out[2]
*76 d_out[1]
*77 d_out[0]
*78 r_ready
*79 rxd
*80 parity_error
*81 frame_error
*82 wrn
*83 d_in[7]
*84 d_in[6]
*85 d_in[5]
*86 d_in[4]
*87 d_in[3]
*88 d_in[2]
*89 d_in[1]
*90 d_in[0]
*91 t_empty
*92 txd
*93 cnt16x[3]
*94 cnt16x[2]
*95 cnt16x[1]
*96 cnt16x[0]
*97 no_bits_rcvd[3]
*98 no_bits_rcvd[2]
*99 no_bits_rcvd[1]
*100 no_bits_rcvd[0]
*101 r_buffer[10]
*102 r_buffer[8]
*103 r_buffer[7]
*104 r_buffer[6]
*105 r_buffer[5]
*106 r_buffer[4]
*107 r_buffer[3]
*108 r_buffer[2]
*109 r_buffer[1]
*110 r_clk1x
*111 sampling
*112 r_data[7]
*113 r_data[6]
*114 r_data[5]
*115 r_data[4]
*116 r_data[3]
*117 r_data[2]
*118 r_data[1]
*119 r_data[0]
*120 no_bits_sent[3]
*121 no_bits_sent[2]
*122 no_bits_sent[1]
*123 no_bits_sent[0]
*124 t_buffer[7]
*125 t_buffer[6]
*126 t_buffer[5]
*127 t_buffer[4]
*128 t_buffer[3]
*129 t_buffer[2]
*130 t_buffer[1]
*131 t_buffer[0]
*132 t_clk1x
*133 sending
*134 t_data[7]
*135 t_data[6]
*136 t_data[5]
*137 t_data[4]
*138 t_data[3]
*139 t_data[2]
*140 t_data[1]
*141 t_data[0]
*142 clk16x
*143 clk_divider/clk_count[31]
*144 clk_divider/clk_count[30]
*145 clk_divider/clk_count[29]
*146 clk_divider/clk_count[28]
*147 clk_divider/clk_count[27]
*148 clk_divider/clk_count[26]
*149 clk_divider/clk_count[25]
*150 clk_divider/clk_count[24]
*151 clk_divider/clk_count[23]
*152 clk_divider/clk_count[22]
*153 clk_divider/clk_count[21]
*154 clk_divider/clk_count[20]
*155 clk_divider/clk_count[19]
*156 clk_divider/clk_count[18]
*157 clk_divider/clk_count[17]
*158 clk_divider/clk_count[16]
*159 clk_divider/clk_count[15]
*160 clk_divider/clk_count[14]
*161 clk_divider/clk_count[13]
*162 clk_divider/clk_count[12]
*163 clk_divider/clk_count[11]
*164 clk_divider/clk_count[10]
*165 clk_divider/clk_count[9]
*166 clk_divider/clk_count[8]
*167 clk_divider/clk_count[7]
*168 clk_divider/clk_count[6]
*169 clk_divider/clk_count[5]
*170 clk_divider/clk_count[4]
*171 clk_divider/clk_count[3]
*172 clk_divider/clk_count[2]
*173 clk_divider/clk_count[1]
*174 clk_divider/clk_count[0]
*175 clk_divider/inc_add_102_27_n_0
*176 clk_divider/inc_add_102_27_n_2
*177 clk_divider/inc_add_102_27_n_4
*178 clk_divider/inc_add_102_27_n_6
*179 clk_divider/inc_add_102_27_n_9
*180 clk_divider/inc_add_102_27_n_10
*181 clk_divider/inc_add_102_27_n_12
*182 clk_divider/inc_add_102_27_n_14
*183 clk_divider/inc_add_102_27_n_16
*184 clk_divider/inc_add_102_27_n_18
*185 clk_divider/inc_add_102_27_n_21
*186 clk_divider/inc_add_102_27_n_22
*187 clk_divider/inc_add_102_27_n_25
*188 clk_divider/inc_add_102_27_n_26
*189 clk_divider/inc_add_102_27_n_28
*190 clk_divider/inc_add_102_27_n_30
*191 clk_divider/inc_add_102_27_n_32
*192 clk_divider/inc_add_102_27_n_34
*193 clk_divider/inc_add_102_27_n_36
*194 clk_divider/inc_add_102_27_n_38
*195 clk_divider/inc_add_102_27_n_40
*196 clk_divider/inc_add_102_27_n_42
*197 clk_divider/inc_add_102_27_n_44
*198 clk_divider/inc_add_102_27_n_46
*199 clk_divider/inc_add_102_27_n_48
*200 clk_divider/inc_add_102_27_n_50
*201 clk_divider/inc_add_102_27_n_52
*202 clk_divider/inc_add_102_27_n_54
*203 clk_divider/inc_add_102_27_n_56
*204 clk_divider/inc_add_102_27_n_58
*205 clk_divider/n_0
*206 clk_divider/n_1
*207 clk_divider/n_2
*208 clk_divider/n_3
*209 clk_divider/n_4
*210 clk_divider/n_5
*211 clk_divider/n_6
*212 clk_divider/n_7
*213 clk_divider/n_8
*214 clk_divider/n_9
*215 clk_divider/n_10
*216 clk_divider/n_11
*217 clk_divider/n_12
*218 clk_divider/n_13
*219 clk_divider/n_14
*220 clk_divider/n_15
*221 clk_divider/n_16
*222 clk_divider/n_17
*223 clk_divider/n_18
*224 clk_divider/n_19
*225 clk_divider/n_20
*226 clk_divider/n_21
*227 clk_divider/n_22
*228 clk_divider/n_23
*229 clk_divider/n_24
*230 clk_divider/n_25
*231 clk_divider/n_26
*232 clk_divider/n_27
*233 clk_divider/n_28
*234 clk_divider/n_29
*235 clk_divider/n_30
*236 clk_divider/n_31
*237 clk_divider/n_32
*238 clk_divider/n_33
*239 clk_divider/n_34
*240 clk_divider/n_35
*241 clk_divider/n_36
*242 clk_divider/n_37
*243 clk_divider/n_38
*244 clk_divider/n_39
*245 clk_divider/n_40
*246 clk_divider/n_41
*247 clk_divider/n_42
*248 clk_divider/n_43
*249 clk_divider/n_44
*250 clk_divider/n_45
*251 clk_divider/n_46
*252 clk_divider/n_48
*253 clk_divider/n_49
*254 clk_divider/n_53
*255 clk_divider/n_54
*256 clk_divider/n_55
*257 clk_divider/n_56
*258 clk_divider/n_57
*259 clk_divider/n_58
*260 clk_divider/n_59
*261 clk_divider/n_60
*262 clk_divider/n_61
*263 clk_divider/n_62
*264 clk_divider/n_63
*265 clk_divider/n_64
*266 clk_divider/n_65
*267 clk_divider/n_66
*268 clk_divider/n_67
*269 clk_divider/n_68
*270 clk_divider/n_69
*271 clk_divider/n_70
*272 clk_divider/n_71
*273 clk_divider/n_72
*274 clk_divider/n_73
*275 clk_divider/n_74
*276 clk_divider/n_75
*277 clk_divider/n_76
*278 clk_divider/n_77
*279 clk_divider/n_78
*280 clk_divider/n_79
*281 clk_divider/n_80
*282 clk_divider/n_81
*283 clk_divider/n_82
*284 clk_divider/n_83
*285 uart/n_3
*286 uart/n_4
*287 uart/n_5
*288 uart/n_6
*289 uart/n_7
*290 uart/n_8
*291 uart/recver/sampling_place[3]
*292 uart/recver/sampling_place[2]
*293 uart/recver/sampling_place[1]
*294 uart/recver/sampling_place[0]
*295 uart/recver/n_12
*296 uart/recver/n_13
*297 uart/recver/n_14
*298 uart/recver/n_19
*299 uart/recver/n_20
*300 uart/recver/n_21
*301 uart/recver/n_22
*302 uart/recver/n_27
*303 uart/recver/n_29
*304 uart/recver/n_30
*305 uart/recver/n_31
*306 uart/recver/n_32
*307 uart/recver/n_33
*308 uart/recver/n_34
*309 uart/recver/n_35
*310 uart/recver/n_36
*311 uart/recver/n_37
*312 uart/recver/n_40
*313 uart/recver/n_41
*314 uart/recver/n_42
*315 uart/recver/n_43
*316 uart/recver/n_44
*317 uart/recver/n_45
*318 uart/recver/n_46
*319 uart/recver/n_47
*320 uart/recver/n_48
*321 uart/recver/n_49
*322 uart/recver/n_50
*323 uart/recver/n_51
*324 uart/recver/n_52
*325 uart/recver/n_53
*326 uart/recver/n_54
*327 uart/recver/n_55
*328 uart/recver/n_56
*329 uart/recver/n_57
*330 uart/recver/n_60
*331 uart/recver/n_65
*332 uart/recver/n_73
*333 uart/recver/n_74
*334 uart/recver/n_75
*335 uart/recver/n_76
*336 uart/recver/n_77
*337 uart/recver/n_78
*338 uart/recver/n_79
*339 uart/recver/n_80
*340 uart/recver/n_83
*341 uart/recver/n_84
*342 uart/recver/n_85
*343 uart/recver/n_86
*344 uart/recver/n_87
*345 uart/recver/n_89
*346 uart/recver/n_91
*347 uart/recver/n_92
*348 uart/recver/n_94
*349 uart/recver/n_95
*350 uart/recver/n_99
*351 uart/recver/n_102
*352 uart/recver/n_130
*353 uart/recver/rxd_new
*354 uart/recver/rxd_old
*355 uart/sender/clrn_buf
*356 uart/sender/clrn_buf_clean
*357 uart/sender/load_t_buffer
*358 uart/sender/n_17
*359 uart/sender/n_18
*360 uart/sender/n_19
*361 uart/sender/n_20
*362 uart/sender/n_23
*363 uart/sender/n_24
*364 uart/sender/n_25
*365 uart/sender/n_29
*366 uart/sender/n_31
*367 uart/sender/n_32
*368 uart/sender/n_33
*369 uart/sender/n_34
*370 uart/sender/n_35
*371 uart/sender/n_36
*372 uart/sender/n_37
*373 uart/sender/n_38
*374 uart/sender/n_39
*375 uart/sender/n_40
*376 uart/sender/n_41
*377 uart/sender/n_42
*378 uart/sender/n_43
*379 uart/sender/n_44
*380 uart/sender/n_45
*381 uart/sender/n_46
*382 uart/sender/n_47
*383 uart/sender/n_48
*384 uart/sender/n_49
*385 uart/sender/n_50
*386 uart/sender/n_51
*387 uart/sender/n_52
*388 uart/sender/n_53
*389 uart/sender/n_54
*390 uart/sender/n_55
*391 uart/sender/n_56
*392 uart/sender/n_57
*393 uart/sender/n_58
*394 uart/sender/n_59
*395 uart/sender/n_60
*396 uart/sender/n_61
*397 uart/sender/n_62
*398 uart/sender/n_63
*399 uart/sender/n_64
*400 uart/sender/n_65
*401 uart/sender/n_66
*402 uart/sender/n_67
*403 uart/sender/n_68
*404 uart/sender/n_69
*405 uart/sender/n_70
*406 uart/sender/n_71
*407 uart/sender/n_72
*408 uart/sender/n_73
*409 uart/sender/n_74
*410 uart/sender/n_75
*411 uart/sender/n_76
*412 uart/sender/n_77
*413 uart/sender/n_78
*414 uart/sender/n_79
*415 uart/sender/n_80
*416 uart/sender/n_81
*417 uart/sender/n_82
*418 uart/sender/n_83
*419 uart/sender/n_84
*420 uart/sender/n_85
*421 uart/sender/n_86
*422 uart/sender/n_87
*423 uart/sender/n_88
*424 uart/sender/n_89
*425 uart/sender/n_90
*426 uart/sender/n_91
*427 uart/sender/n_92
*428 uart/sender/n_93
*429 uart/sender/n_94
*430 uart/sender/n_112
*431 uart/sender/n_118
*432 uart/sender/n_119
*433 uart/sender/wrn_buf
*434 uart/sender/wrn_buf_clean
*435 r_buffer[9]
*436 r_buffer[0]
*437 FE_OFC191_t_data_3
*438 FE_OFC190_t_data_0
*439 FE_OFC185_t_data_1
*440 FE_OFC184_t_data_2
*441 FE_OFC182_t_data_4
*442 FE_OFC181_t_data_5
*443 FE_OFC180_t_data_6
*444 FE_OFC179_t_data_7
*445 FE_OFC178_sending
*446 FE_OFC177_t_clk1x
*447 FE_OFC176_t_buffer_0
*448 FE_OFC175_t_buffer_1
*449 FE_OFC174_t_buffer_2
*450 FE_OFC173_t_buffer_3
*451 FE_OFC172_t_buffer_4
*452 FE_OFC171_t_buffer_5
*453 FE_OFC170_t_buffer_6
*454 FE_OFC169_t_buffer_7
*455 FE_OFC168_no_bits_sent_0
*456 FE_OFC167_no_bits_sent_1
*457 FE_OFC166_no_bits_sent_2
*458 FE_OFC165_no_bits_sent_3
*459 FE_OFC164_r_data_0
*460 FE_OFC163_r_data_1
*461 FE_OFC162_r_data_2
*462 FE_OFC161_r_data_3
*463 FE_OFC160_r_data_4
*464 FE_OFC159_r_data_5
*465 FE_OFC158_r_data_6
*466 FE_OFC157_r_data_7
*467 FE_OFC156_sampling
*468 FE_OFC155_r_clk1x
*469 FE_OFC154_no_bits_rcvd_0
*470 FE_OFC153_no_bits_rcvd_1
*471 FE_OFC152_no_bits_rcvd_2
*472 FE_OFC151_no_bits_rcvd_3
*473 FE_OFC150_cnt16x_0
*474 FE_OFC149_cnt16x_1
*475 FE_OFC148_cnt16x_2
*476 FE_OFC147_cnt16x_3
*477 FE_OFC146_txd
*478 FE_OFC145_t_empty
*479 FE_OFC144_frame_error
*480 FE_OFC143_parity_error
*481 FE_OFC142_r_ready
*482 clk_divider/CTS_ccl_a_buf_00003
*483 clk_divider/CTS_ccl_a_buf_00002
*484 clk_divider/CTS_ccl_a_buf_00001
*485 clk_divider/CTS_ccl_a_buf_00005
*486 clk_divider/FE_OFC87_n_7
*487 clk_divider/FE_OFC86_n_7
*488 clk_divider/g956__2398
*489 clk_divider/g957__5107
*490 clk_divider/g958__6260
*491 clk_divider/g959__4319
*492 clk_divider/g960__8428
*493 clk_divider/g961__5526
*494 clk_divider/g962__6783
*495 clk_divider/g963__3680
*496 clk_divider/g964__1617
*497 clk_divider/g965__2802
*498 clk_divider/clk_count_reg\[31\]
*499 clk_divider/clk_count_reg\[19\]
*500 clk_divider/clk_count_reg\[20\]
*501 clk_divider/clk_count_reg\[21\]
*502 clk_divider/clk_count_reg\[22\]
*503 clk_divider/clk_count_reg\[23\]
*504 clk_divider/clk_count_reg\[24\]
*505 clk_divider/clk_count_reg\[25\]
*506 clk_divider/clk_count_reg\[26\]
*507 clk_divider/clk_count_reg\[27\]
*508 clk_divider/clk_count_reg\[28\]
*509 clk_divider/clk_count_reg\[29\]
*510 clk_divider/clk_count_reg\[30\]
*511 clk_divider/clk_count_reg\[18\]
*512 clk_divider/clk_count_reg\[2\]
*513 clk_divider/clk_count_reg\[1\]
*514 clk_divider/clk_count_reg\[16\]
*515 clk_divider/clk_count_reg\[17\]
*516 clk_divider/clk_count_reg\[6\]
*517 clk_divider/clk_count_reg\[7\]
*518 clk_divider/clk_count_reg\[8\]
*519 clk_divider/clk_count_reg\[9\]
*520 clk_divider/clk_count_reg\[10\]
*521 clk_divider/clk_count_reg\[4\]
*522 clk_divider/clk_count_reg\[12\]
*523 clk_divider/clk_count_reg\[13\]
*524 clk_divider/clk_count_reg\[14\]
*525 clk_divider/clk_count_reg\[15\]
*526 clk_divider/clk_count_reg\[11\]
*527 clk_divider/clk_count_reg\[5\]
*528 clk_divider/clk_count_reg\[3\]
*529 clk_divider/clk_count_reg\[0\]
*530 clk_divider/g1203__1705
*531 clk_divider/g1204__5122
*532 clk_divider/g1205__8246
*533 clk_divider/g1206__7098
*534 clk_divider/g1207__6131
*535 clk_divider/g1208__1881
*536 clk_divider/g1209__5115
*537 clk_divider/g1210__7482
*538 clk_divider/g1211__4733
*539 clk_divider/g1212__6161
*540 clk_divider/g1213__9315
*541 clk_divider/g1214__9945
*542 clk_divider/g1215__2883
*543 clk_divider/g1216__2346
*544 clk_divider/g1217__1666
*545 clk_divider/g1218__7410
*546 clk_divider/g1219__6417
*547 clk_divider/g1220__5477
*548 clk_divider/g1221__2398
*549 clk_divider/g1222__5107
*550 clk_divider/g1223__6260
*551 clk_divider/g1224__4319
*552 clk_divider/g1225__8428
*553 clk_divider/g1226__5526
*554 clk_divider/g1227__6783
*555 clk_divider/g1228__3680
*556 clk_divider/g1229__1617
*557 clk_divider/g1230__2802
*558 clk_divider/g1231__1705
*559 clk_divider/g1232__5122
*560 clk_divider/g1233__8246
*561 clk_divider/g1234__7098
*562 clk_divider/g1236__6131
*563 clk_divider/g1237__1881
*564 clk_divider/g1238__5115
*565 clk_divider/g1239__7482
*566 clk_divider/g1240__4733
*567 clk_divider/g1241__6161
*568 clk_divider/g1242__9315
*569 clk_divider/inc_add_102_27_g407__9945
*570 clk_divider/inc_add_102_27_g408__2883
*571 clk_divider/inc_add_102_27_g409__2346
*572 clk_divider/inc_add_102_27_g410__1666
*573 clk_divider/inc_add_102_27_g411__7410
*574 clk_divider/inc_add_102_27_g412__6417
*575 clk_divider/inc_add_102_27_g413__5477
*576 clk_divider/inc_add_102_27_g414__2398
*577 clk_divider/inc_add_102_27_g415__5107
*578 clk_divider/inc_add_102_27_g416__6260
*579 clk_divider/inc_add_102_27_g417__4319
*580 clk_divider/inc_add_102_27_g418__8428
*581 clk_divider/inc_add_102_27_g419__5526
*582 clk_divider/inc_add_102_27_g420__6783
*583 clk_divider/inc_add_102_27_g421__3680
*584 clk_divider/inc_add_102_27_g422__1617
*585 clk_divider/inc_add_102_27_g423__2802
*586 clk_divider/inc_add_102_27_g424__1705
*587 clk_divider/inc_add_102_27_g425__5122
*588 clk_divider/inc_add_102_27_g426__8246
*589 clk_divider/inc_add_102_27_g427__7098
*590 clk_divider/inc_add_102_27_g428__6131
*591 clk_divider/inc_add_102_27_g429__1881
*592 clk_divider/inc_add_102_27_g430__5115
*593 clk_divider/inc_add_102_27_g431__7482
*594 clk_divider/inc_add_102_27_g432__4733
*595 clk_divider/inc_add_102_27_g433__6161
*596 clk_divider/inc_add_102_27_g434__9315
*597 clk_divider/inc_add_102_27_g435__9945
*598 clk_divider/inc_add_102_27_g436__2883
*599 clk_divider/inc_add_102_27_g437__2346
*600 clk_divider/inc_add_102_27_g438__1666
*601 clk_divider/inc_add_102_27_g439__7410
*602 clk_divider/inc_add_102_27_g440__6417
*603 clk_divider/inc_add_102_27_g441__5477
*604 clk_divider/inc_add_102_27_g442__2398
*605 clk_divider/inc_add_102_27_g443__5107
*606 clk_divider/inc_add_102_27_g444__6260
*607 clk_divider/inc_add_102_27_g445__4319
*608 clk_divider/inc_add_102_27_g446__8428
*609 clk_divider/inc_add_102_27_g447__5526
*610 clk_divider/inc_add_102_27_g448__6783
*611 clk_divider/inc_add_102_27_g449__3680
*612 clk_divider/inc_add_102_27_g450__1617
*613 clk_divider/inc_add_102_27_g451__2802
*614 clk_divider/inc_add_102_27_g452__1705
*615 clk_divider/inc_add_102_27_g453__5122
*616 clk_divider/inc_add_102_27_g454__8246
*617 clk_divider/inc_add_102_27_g455__7098
*618 clk_divider/inc_add_102_27_g456__6131
*619 clk_divider/inc_add_102_27_g457__1881
*620 clk_divider/inc_add_102_27_g458__5115
*621 clk_divider/inc_add_102_27_g459__7482
*622 clk_divider/inc_add_102_27_g460__4733
*623 clk_divider/inc_add_102_27_g461__6161
*624 clk_divider/inc_add_102_27_g462__9315
*625 clk_divider/inc_add_102_27_g463__9945
*626 clk_divider/inc_add_102_27_g464__2883
*627 uart/recver/FE_OFC141_r_clk1x
*628 uart/recver/FE_OFC89_n_30
*629 uart/recver/FE_RC_9_0
*630 uart/recver/FE_RC_8_0
*631 uart/recver/FE_RC_7_0
*632 uart/recver/FE_RC_6_0
*633 uart/recver/FE_RC_5_0
*634 uart/recver/FE_RC_4_0
*635 uart/recver/FE_RC_3_0
*636 uart/recver/FE_RC_2_0
*637 uart/recver/FE_RC_1_0
*638 uart/recver/FE_OFC75_n_53
*639 uart/recver/FE_OFC74_n_54
*640 uart/recver/FE_OFC73_n_54
*641 uart/recver/FE_OFC20_sampling
*642 uart/recver/FE_OFC18_sampling
*643 uart/recver/rxd_old_reg
*644 uart/recver/g108__2346
*645 uart/recver/g101__1666
*646 uart/recver/g102__7410
*647 uart/recver/rxd_new_reg
*648 uart/recver/g103__6417
*649 uart/recver/g105__5477
*650 uart/recver/g104__2398
*651 uart/recver/g106__5107
*652 uart/recver/g107__6260
*653 uart/recver/g1688
*654 uart/recver/clk1x_reg
*655 uart/recver/frame_error_reg
*656 uart/recver/no_bits_rcvd_reg\[1\]
*657 uart/recver/no_bits_rcvd_reg\[2\]
*658 uart/recver/parity_error_reg
*659 uart/recver/r_buffer_reg\[1\]
*660 uart/recver/r_buffer_reg\[2\]
*661 uart/recver/r_buffer_reg\[3\]
*662 uart/recver/r_buffer_reg\[4\]
*663 uart/recver/r_buffer_reg\[5\]
*664 uart/recver/r_buffer_reg\[6\]
*665 uart/recver/r_buffer_reg\[7\]
*666 uart/recver/r_buffer_reg\[8\]
*667 uart/recver/r_buffer_reg\[10\]
*668 uart/recver/r_data_reg\[0\]
*669 uart/recver/r_data_reg\[1\]
*670 uart/recver/r_data_reg\[2\]
*671 uart/recver/r_data_reg\[3\]
*672 uart/recver/r_data_reg\[4\]
*673 uart/recver/r_data_reg\[5\]
*674 uart/recver/r_data_reg\[6\]
*675 uart/recver/r_data_reg\[7\]
*676 uart/recver/r_ready_reg
*677 uart/recver/sampling_place_reg\[0\]
*678 uart/recver/sampling_place_reg\[1\]
*679 uart/recver/sampling_place_reg\[2\]
*680 uart/recver/sampling_place_reg\[3\]
*681 uart/recver/sampling_reg
*682 uart/recver/g2414__5526
*683 uart/recver/g2415__6783
*684 uart/recver/g2417__1617
*685 uart/recver/g2418__2802
*686 uart/recver/g2433__5122
*687 uart/recver/g2448__1881
*688 uart/recver/g2460
*689 uart/recver/g2461__7410
*690 uart/recver/g2467__4319
*691 uart/recver/g2472__6783
*692 uart/recver/g2477__5122
*693 uart/recver/g2480__6131
*694 uart/recver/g2481__1881
*695 uart/recver/g2482__5115
*696 uart/recver/g2485__7482
*697 uart/recver/g2486__4733
*698 uart/recver/g2487__6161
*699 uart/recver/g2488__9315
*700 uart/recver/g2489__9945
*701 uart/recver/g2490
*702 uart/recver/g2491__2883
*703 uart/recver/g2492__2346
*704 uart/recver/g2493__1666
*705 uart/recver/g2494__7410
*706 uart/recver/g2495__6417
*707 uart/recver/g2498__2398
*708 uart/recver/g2500__6260
*709 uart/recver/g2501__4319
*710 uart/recver/g2502__8428
*711 uart/recver/g2503__5526
*712 uart/recver/g2504__6783
*713 uart/recver/g2505__3680
*714 uart/recver/g2506__1617
*715 uart/recver/g2509__2802
*716 uart/recver/g2511__1705
*717 uart/recver/g2512__5122
*718 uart/recver/g2513__8246
*719 uart/recver/g2516
*720 uart/recver/g2519
*721 uart/recver/g2526
*722 uart/recver/drc_bufs2534
*723 uart/recver/drc_bufs2542
*724 uart/recver/drc_bufs2590
*725 uart/recver/g2__7098
*726 uart/recver/g2649__6131
*727 uart/recver/no_bits_rcvd_reg\[3\]
*728 uart/recver/no_bits_rcvd_reg\[0\]
*729 uart/sender/FE_OFC192_n_65
*730 uart/sender/FE_OFC188_n_24
*731 uart/sender/FE_OFC183_t_data_3
*732 uart/sender/FE_OFC140_t_data_0
*733 uart/sender/FE_OFC139_n_49
*734 uart/sender/FE_OFC136_t_data_0
*735 uart/sender/FE_OFC50_t_buffer_2
*736 uart/sender/FE_OFC48_t_buffer_2
*737 uart/sender/clrn_buf_reg
*738 uart/sender/wrn_buf_reg
*739 uart/sender/g565__1881
*740 uart/sender/g566__5115
*741 uart/sender/txd_reg
*742 uart/sender/g994__7482
*743 uart/sender/g995__4733
*744 uart/sender/sending_reg
*745 uart/sender/g997__6161
*746 uart/sender/g998__9315
*747 uart/sender/g999__9945
*748 uart/sender/no_bits_sent_reg\[3\]
*749 uart/sender/g1001__2883
*750 uart/sender/g1002__2346
*751 uart/sender/t_buffer_reg\[0\]
*752 uart/sender/t_buffer_reg\[1\]
*753 uart/sender/t_buffer_reg\[2\]
*754 uart/sender/t_buffer_reg\[3\]
*755 uart/sender/t_buffer_reg\[4\]
*756 uart/sender/t_buffer_reg\[5\]
*757 uart/sender/g1009__1666
*758 uart/sender/g1010__7410
*759 uart/sender/g1011__6417
*760 uart/sender/g1012__5477
*761 uart/sender/t_buffer_reg\[6\]
*762 uart/sender/t_buffer_reg\[7\]
*763 uart/sender/g1015__2398
*764 uart/sender/g1016__5107
*765 uart/sender/g1017__6260
*766 uart/sender/load_t_buffer_reg
*767 uart/sender/t_empty_reg
*768 uart/sender/no_bits_sent_reg\[2\]
*769 uart/sender/g1021__4319
*770 uart/sender/g1022__8428
*771 uart/sender/g1023__5526
*772 uart/sender/g1024__6783
*773 uart/sender/g1025__3680
*774 uart/sender/g1026__1617
*775 uart/sender/g1027__2802
*776 uart/sender/g1028__1705
*777 uart/sender/g1029__5122
*778 uart/sender/g1030__8246
*779 uart/sender/t_data_reg\[5\]
*780 uart/sender/t_data_reg\[6\]
*781 uart/sender/t_data_reg\[2\]
*782 uart/sender/t_data_reg\[0\]
*783 uart/sender/t_data_reg\[1\]
*784 uart/sender/t_data_reg\[7\]
*785 uart/sender/t_data_reg\[3\]
*786 uart/sender/t_data_reg\[4\]
*787 uart/sender/g1039__7098
*788 uart/sender/g1040__6131
*789 uart/sender/g1041__1881
*790 uart/sender/g1042__5115
*791 uart/sender/g1043__7482
*792 uart/sender/g1044__4733
*793 uart/sender/g1045__6161
*794 uart/sender/g1046__9315
*795 uart/sender/g1047__9945
*796 uart/sender/g1048__2883
*797 uart/sender/g1049__2346
*798 uart/sender/g1050__1666
*799 uart/sender/g1051__7410
*800 uart/sender/g1052__6417
*801 uart/sender/g1053__5477
*802 uart/sender/no_bits_sent_reg\[1\]
*803 uart/sender/g1055__2398
*804 uart/sender/g1056__5107
*805 uart/sender/g1057__6260
*806 uart/sender/g1058__4319
*807 uart/sender/g1059__8428
*808 uart/sender/g1061__5526
*809 uart/sender/g1062__6783
*810 uart/sender/g1063__3680
*811 uart/sender/wrn_buf_clean_reg
*812 uart/sender/g1065__1617
*813 uart/sender/g1066__2802
*814 uart/sender/g1067__1705
*815 uart/sender/g1068__5122
*816 uart/sender/g1069__8246
*817 uart/sender/g1070__7098
*818 uart/sender/g1071__6131
*819 uart/sender/g1072__1881
*820 uart/sender/g1073__5115
*821 uart/sender/g1074__7482
*822 uart/sender/g1075__4733
*823 uart/sender/g1076__6161
*824 uart/sender/g1077
*825 uart/sender/clrn_buf_clean_reg
*826 uart/sender/g1080__9315
*827 uart/sender/g1083__9945
*828 uart/sender/g1086
*829 uart/sender/g1088
*830 uart/sender/g1093
*831 uart/sender/g1099
*832 uart/sender/g1220__2883
*833 uart/sender/g2__2346
*834 uart/sender/g1221__1666
*835 uart/sender/no_bits_sent_reg\[0\]
*836 uart/cnt16x_reg\[3\]
*837 uart/g82__7410
*838 uart/cnt16x_reg\[2\]
*839 uart/g84__6417
*840 uart/cnt16x_reg\[1\]
*841 uart/g86__5477
*842 uart/g87__2398
*843 uart/g89__5107
*844 uart/cnt16x_reg\[0\]


*PORTS

*63 I *C 53.4 36.195
*64 I *C 26.7 53.2
*65 I *C 26.7 53.2
*66 I *C 26.7 53.2
*67 I *C 26.7 53.2
*68 I *C 24.7 0
*69 I *C 27.5 0
*70 O *C 53.4 16.625
*71 O *C 31.5 0
*72 O *C 42.9 0
*73 O *C 53.4 19.475
*74 O *C 42.9 0
*75 O *C 36.1 0
*76 O *C 35.5 0
*77 O *C 53.4 13.205
*78 O *C 23.9 0
*79 I *C 16.3 0
*80 O *C 24.7 0
*81 O *C 26.9 0
*82 I *C 21.3 53.2
*83 I *C 19.5 53.2
*84 I *C 18.7 53.2
*85 I *C 18.5 53.2
*86 I *C 21.3 53.2
*87 I *C 21.9 53.2
*88 I *C 22.5 53.2
*89 I *C 22.3 53.2
*90 I *C 21.9 53.2
*91 O *C 0 31.825
*92 O *C 0 34.485
*93 O *C 0 32.395
*94 O *C 0 25.745
*95 O *C 0 25.365
*96 O *C 0 24.415
*97 O *C 23.5 0
*98 O *C 19.7 0
*99 O *C 12.3 0
*100 O *C 13.9 0
*101 O *C 16.5 0
*435 O *C 0 19.095
*102 O *C 22.9 0
*103 O *C 21.9 0
*104 O *C 19.7 0
*105 O *C 18.3 0
*106 O *C 21.3 0
*107 O *C 22.5 0
*108 O *C 18.7 0
*109 O *C 19.7 0
*436 O *C 0 8.455
*110 O *C 0 12.445
*111 O *C 17.3 0
*112 O *C 53.4 16.245
*113 O *C 26.7 0
*114 O *C 38.3 0
*115 O *C 32.5 0
*116 O *C 38.3 0
*117 O *C 31.7 0
*118 O *C 31.1 0
*119 O *C 38.1 0
*120 O *C 0 36.005
*121 O *C 0 36.955
*122 O *C 0 41.135
*123 O *C 0 44.935
*124 O *C 9.9 53.2
*125 O *C 0 39.045
*126 O *C 15.3 53.2
*127 O *C 14.3 53.2
*128 O *C 15.7 53.2
*129 O *C 13.9 53.2
*130 O *C 14.7 53.2
*131 O *C 11.7 53.2
*132 O *C 0 32.775
*133 O *C 0 35.245
*134 O *C 16.9 53.2
*135 O *C 0 36.005
*136 O *C 18.9 53.2
*137 O *C 20.1 53.2
*138 O *C 20.1 53.2
*139 O *C 21.3 53.2
*140 O *C 20.1 53.2
*141 O *C 20.5 53.2


*D_NET *1 0.000578111

*CONN
*I *758:A1 I *C 20.3 35.435 *L 0.000212 *D AOI21XL
*I *729:Y O *C 12.935 36.47 *L 0 *D BUFX2

*CAP
1 *758:A1 1.65293e-05
2 *729:Y 1.65293e-05
3 *1:2 1.14488e-05
4 *1:3 1.14488e-05
5 *1:5 1.26699e-05
6 *1:6 0.0002425
7 *1:7 1.38392e-05
8 *1:8 1.18114e-05
9 *1:9 0.000241331

*RES
1 *1:2 *729:Y 6.5999999
2 *1:3 *1:2 0.143408
3 *1:5 *1:3 6.5999999
4 *1:5 *1:7 0.150961
5 *1:6 *1:7 0.143408
6 *1:6 *1:9 5.43602
7 *1:8 *758:A1 6.5999999
8 *1:8 *1:9 6.5999999
9 *1:4 *1:8 0.142905
*END

*D_NET *2 0.000889099

*CONN
*I *437:A I *C 23.9 47.975 *L 0.00199 *D CLKBUFX20
*I *793:A0 I *C 17.78 44.435 *L 0.000211 *D AOI22XL
*I *731:Y O *C 30.01 44.755 *L 0 *D CLKBUFX20

*CAP
1 *437:A 1.6533e-05
2 *793:A0 1.6533e-05
3 *731:Y 1.6533e-05
4 *2:3 0.00028573
5 *2:4 0.00022374
6 *2:7 1.18068e-05
7 *2:8 0.000119938
8 *2:9 0.000119938
9 *2:10 1.18068e-05
10 *2:11 6.65417e-05

*RES
1 *2:9 *437:A 6.5999999
2 *2:7 *793:A0 6.5999999
3 *2:6 *2:7 0.142905
4 *2:8 *2:9 2.58205
5 *2:4 *2:7 6.5999999
6 *2:3 *2:8 6.5999999
7 *2:4 *2:3 4.83197
8 *2:3 *2:11 1.963
9 *2:10 *2:11 6.5999999
10 *2:10 *731:Y 6.5999999
11 *2:5 *2:10 0.142905
*END

*D_NET *3 0.00128616

*CONN
*I *438:A I *C 29.5 49.685 *L 0.00199 *D CLKBUFX20
*I *734:A I *C 19.1 49.495 *L 0.000212 *D INVXL
*I *819:B0 I *C 26.3 44.555 *L 0.000211 *D AOI22XL
*I *782:Q O *C 29.74 48.1 *L 0 *D DFFHQX1

*CAP
1 *438:A 1.65307e-05
2 *734:A 1.65307e-05
3 *819:B0 1.65307e-05
4 *782:Q 1.65307e-05
5 *3:4 0.000153109
6 *3:5 0.000153109
7 *3:7 1.18103e-05
8 *3:8 5.62707e-05
9 *3:9 6.45201e-05
10 *3:10 0.000173890645
11 *3:11 5.93407e-05
12 *3:12 0.000173890645
13 *3:13 0.000155009
14 *3:14 4.601e-05
15 *3:15 5.30309e-05
16 *3:16 0.000108471
17 *3:17 1.15715e-05

*RES
1 *3:14 *782:Q 6.5999999
2 *3:17 *438:A 6.5999999
3 *3:5 *819:B0 6.5999999
4 *3:14 *3:15 1.00416
5 *3:15 *3:17 0.143408
6 *3:5 *3:4 3.72972
7 *3:16 *3:15 6.5999999
8 *3:13 *3:4 6.5999999
9 *3:13 *3:16 2.56705
10 *3:11 *3:13 1.05703
11 *3:11 *3:12 0.286917
12 *3:10 *3:12 3.62398
13 *3:9 *3:10 0.286917
14 *3:8 *3:9 0.755008
15 *3:7 *734:A 6.5999999
16 *3:7 *3:8 6.5999999
17 *3:6 *3:7 0.142905
*END

*D_NET *4 0.001207

*CONN
*I *484:A I *C 39.63 27.45 *L 0.000389 *D CLKBUFX4
*I *485:Y O *C 42.285 33.17 *L 0 *D CLKBUFX3
*I *483:A I *C 46.43 34.29 *L 0.000389 *D CLKBUFX4
*I *482:A I *C 37.23 32.59 *L 0.000389 *D CLKBUFX4

*CAP
1 *484:A 1.65276e-05
2 *485:Y 1.65276e-05
3 *483:A 1.65276e-05
4 *482:A 1.65276e-05
5 *4:4 2.86997e-05
6 *4:5 2.86997e-05
7 *4:6 1.29105e-05
8 *4:7 1.29105e-05
9 *4:8 0.000196719434
10 *4:9 0.0001612
11 *4:10 9.21506e-05
12 *4:11 0.00012767
13 *4:12 3.29412e-05
14 *4:13 3.29412e-05
15 *4:14 1.79504e-05
16 *4:15 1.79504e-05
17 *4:16 0.00018317
18 *4:17 0.00018317
19 *4:19 1.18089e-05

*RES
1 *4:12 *483:A 6.5999999
2 *4:5 *482:A 6.5999999
3 *4:13 *4:12 0.860651
4 *4:15 *485:Y 6.5999999
5 *4:5 *4:4 0.430325
6 *4:11 *4:13 6.5999999
7 *4:15 *4:14 0.286917
8 *4:10 *4:4 6.5999999
9 *4:8 *4:11 3.32195
10 *4:8 *4:14 6.5999999
11 *4:10 *4:9 1.963
12 *4:9 *4:8 1.66098
13 *4:16 *4:9 6.5999999
14 *4:17 *4:16 4.30345
15 *4:6 *4:17 6.5999999
16 *4:7 *4:6 0.150961
17 *4:19 *484:A 6.5999999
18 *4:19 *4:7 6.5999999
19 *4:18 *4:19 0.142905
*END

*D_NET *5 0.00292864

*CONN
*I *524:CK I *C 28.075 32.84 *L 0.00021 *D DFFHQX1
*I *482:Y O *C 36.96 32.21 *L 0 *D CLKBUFX4
*I *515:CK I *C 26.675 34.04 *L 0.00021 *D DFFHQX1
*I *514:CK I *C 32.075 34.04 *L 0.00021 *D DFFHQX1
*I *513:CK I *C 35.275 34.04 *L 0.00021 *D DFFHQX1
*I *512:CK I *C 38.475 34.04 *L 0.00021 *D DFFHQX1
*I *511:CK I *C 27.675 36.26 *L 0.00021 *D DFFHQX1
*I *503:CK I *C 35.675 37.46 *L 0.00021 *D DFFHQX1
*I *502:CK I *C 37.475 43.1 *L 0.00021 *D DFFHQX1
*I *501:CK I *C 34.275 43.1 *L 0.00021 *D DFFHQX1
*I *500:CK I *C 31.075 40.88 *L 0.00021 *D DFFHQX1
*I *499:CK I *C 32.475 37.46 *L 0.00021 *D DFFHQX1

*CAP
1 *524:CK 1.65316e-05
2 *482:Y 1.65316e-05
3 *515:CK 1.65316e-05
4 *514:CK 1.65316e-05
5 *513:CK 1.65316e-05
6 *512:CK 1.65316e-05
7 *511:CK 1.65316e-05
8 *503:CK 1.65316e-05
9 *502:CK 1.65316e-05
10 *501:CK 1.65316e-05
11 *500:CK 1.65316e-05
12 *499:CK 1.65316e-05
13 *5:12 3.65917e-05
14 *5:13 3.65917e-05
15 *5:14 0.00023334
16 *5:15 0.00015097
17 *5:16 0.00013628
18 *5:17 1.66526e-05
19 *5:18 1.66526e-05
20 *5:19 2.7993e-05
21 *5:20 2.7993e-05
22 *5:21 1.2907e-05
23 *5:22 1.2907e-05
24 *5:23 0.00011288
25 *5:24 0.00011288
26 *5:33 1.18103e-05
27 *5:34 1.18103e-05
28 *5:35 1.19492e-05
29 *5:36 2.90469e-05
30 *5:37 9.38701e-05
31 *5:38 6.937e-05
32 *5:39 2.28907e-05
33 *5:40 2.28907e-05
34 *5:41 1.15682e-05
35 *5:42 1.15682e-05
36 *5:43 4.81314e-05
37 *5:44 1.18103e-05
38 *5:45 2.90469e-05
39 *5:46 0.000136671
40 *5:47 1.18103e-05
41 *5:48 0.00022529
42 *5:49 4.81314e-05
43 *5:50 0.000170607
44 *5:51 5.41701e-05
45 *5:52 5.74885e-05
46 *5:53 0.000161919
47 *5:54 1.67096e-05
48 *5:55 1.18103e-05
49 *5:56 1.55382e-05
50 *5:57 2.88297e-05
51 *5:58 1.18103e-05
52 *5:59 1.18103e-05
53 *5:60 2.88297e-05
54 *5:61 1.18103e-05
55 *5:62 1.91593e-05
56 *5:63 1.91593e-05
57 *5:64 0.00013733
58 *5:65 1.15682e-05
59 *5:66 0.000112488
60 *5:67 1.15682e-05
61 *5:68 9.53691e-05

*RES
1 *5:34 *511:CK 6.5999999